LTspice 24.0.12 for Windows
Circuit: * D:\Ing electronica - unal\6. sexto semestre\Digital1\lab 1\squared-signal CMOS\CMOS ts.asc
Start Time: Sun Nov 17 18:05:59 2024
solver = Normal
Maximum thread count: 8
tnom = 27
temp = 27
method = modified trap
WARNING: Less than two connections to node u1:u1:ua:test.  This node is used by e:u1:u1:ua:test.
WARNING: Less than two connections to node u1:u1:ua:vth_diff.  This node is used by e:u1:u1:ua:vthdiff.
WARNING: Less than two connections to node u1:u1:ub:test.  This node is used by e:u1:u1:ub:test.
WARNING: Less than two connections to node u1:u1:ub:vth_diff.  This node is used by e:u1:u1:ub:vthdiff.
WARNING: Less than two connections to node u1:u1:na1.  This node is used by r:u1:u1:da1.
WARNING: Less than two connections to node u1:u1:nb1.  This node is used by r:u1:u1:db1.
WARNING: Less than two connections to node u1:u1:no1.  This node is used by r:u1:u1:do1.
Direct Newton iteration for .op point succeeded.

vmax: MAX(v(out))=5 FROM 0 TO 0.0004
t0: v(out)=0.99*vmax AT 0.000200002
tf: v(out)=0.05 AT 0.000200003
ts: tf-t0=9.8e-10

Total elapsed time: 0.133 seconds.

