LTspice 24.0.12 for Windows
Circuit: * D:\Ing electronica - unal\6. sexto semestre\Digital1\lab 1\simulaciones\squared-signal CMOS\señal cuadrada CMOS.asc
Start Time: Sat Nov 23 11:26:11 2024
solver = Normal
Maximum thread count: 8
tnom = 27
temp = 27
method = modified trap
WARNING: Less than two connections to node u1:u1:ua:test.  This node is used by e:u1:u1:ua:test.
WARNING: Less than two connections to node u1:u1:ua:vth_diff.  This node is used by e:u1:u1:ua:vthdiff.
WARNING: Less than two connections to node u1:u1:ub:test.  This node is used by e:u1:u1:ub:test.
WARNING: Less than two connections to node u1:u1:ub:vth_diff.  This node is used by e:u1:u1:ub:vthdiff.
WARNING: Less than two connections to node u1:u1:na1.  This node is used by r:u1:u1:da1.
WARNING: Less than two connections to node u1:u1:nb1.  This node is used by r:u1:u1:db1.
WARNING: Less than two connections to node u1:u1:no1.  This node is used by r:u1:u1:do1.
Direct Newton iteration for .op point succeeded.
Total elapsed time: 0.230 seconds.

