LTspice 24.0.12 for Windows
Circuit: * D:\Ing electronica - unal\6. sexto semestre\Digital1\lab 1\squared-signal\TTL tphl.asc
Start Time: Sun Nov 17 11:51:46 2024
solver = Normal
Maximum thread count: 8
tnom = 27
temp = 27
method = modified trap
WARNING: Less than two connections to node u1:u1:ua:test.  This node is used by e:u1:u1:ua:test.
WARNING: Less than two connections to node u1:u1:ua:vth_diff.  This node is used by e:u1:u1:ua:vthdiff.
WARNING: Less than two connections to node u1:u1:ub:test.  This node is used by e:u1:u1:ub:test.
WARNING: Less than two connections to node u1:u1:ub:vth_diff.  This node is used by e:u1:u1:ub:vthdiff.
Direct Newton iteration for .op point succeeded.

vmax: MAX(v(out))=4.97543 FROM 0 TO 0.001
th: v(in)=0.5*vmax AT 1.49754e-06
tl: v(out)=0.5*vmax AT 1.50744e-06
tphl: tl-th=9.89921e-09

Total elapsed time: 0.137 seconds.

