LTspice 24.0.12 for Windows
Circuit: * D:\Ing electronica - unal\6. sexto semestre\Digital1\lab 1\simulaciones\squared-signal TTL\TTL cuadrada 1k.asc
Start Time: Sat Nov 23 11:21:36 2024
solver = Normal
Maximum thread count: 8
tnom = 27
temp = 27
method = modified trap
WARNING: Less than two connections to node u1:u1:ua:test.  This node is used by e:u1:u1:ua:test.
WARNING: Less than two connections to node u1:u1:ua:vth_diff.  This node is used by e:u1:u1:ua:vthdiff.
WARNING: Less than two connections to node u1:u1:ub:test.  This node is used by e:u1:u1:ub:test.
WARNING: Less than two connections to node u1:u1:ub:vth_diff.  This node is used by e:u1:u1:ub:vthdiff.
Direct Newton iteration for .op point succeeded.
Total elapsed time: 0.298 seconds.

